  Version,9.3;

! ***EMS PROGRAM***

  Schedule:Compact,
    C2_NOM,                  !- Name
    Temperature,             !- Schedule Type Limits Name
    Through: 6/30,           !- Field 1
    For: SummerDesignDay,    !- Field 2
    Until: 24:00,24,         !- Field 3
    For: WeekEnds Holidays WinterDesignDay, !- Field 5
    Until: 24:00,27,         !- Field 6
    For: AllOtherDays,       !- Field 8
    Until: 06:00,27,         !- Field 9
    Until: 21:00,24,         !- Field 11
    Until: 24:00,27,         !- Field 13
    Through: 9/1,            !- Field 15
    For: SummerDesignDay,    !- Field 16
    Until: 24:00,24,         !- Field 17
    For: WeekEnds Holidays WinterDesignDay, !- Field 19
    Until: 24:00,27,         !- Field 20
    For: AllOtherDays,       !- Field 22
    Until: 07:00,27,         !- Field 23
    Until: 18:00,24,         !- Field 25
    Until: 24:00,27,         !- Field 27
    Through: 12/31,          !- Field 29
    For: SummerDesignDay,    !- Field 30
    Until: 24:00,24,         !- Field 31
    For: WeekEnds Holidays WinterDesignDay, !- Field 33
    Until: 24:00,27,         !- Field 34
    For: AllOtherDays,       !- Field 36
    Until: 06:00,27,         !- Field 37
    Until: 21:00,24,         !- Field 39
    Until: 24:00,27;         !- Field 41

  Schedule:Compact,
    C1_NOM,                  !- Name
    Temperature,             !- Schedule Type Limits Name
    Through: 12/31,          !- Field 1
    For: SummerDesignDay,    !- Field 2
    Until: 06:00,27,         !- Field 3
    Until: 21:00,24,         !- Field 5
    Until: 24:00,27,         !- Field 7
    For: AllOtherDays,       !- Field 9
    Until: 24:00,27;         !- Field 10

  Schedule:Compact,
    H2_NOM,                  !- Name
    Temperature,             !- Schedule Type Limits Name
    Through: 6/30,           !- Field 1
    For: WinterDesignDay,    !- Field 2
    Until: 24:00,21,         !- Field 3
    For: WeekEnds Holidays SummerDesignDay, !- Field 5
    Until: 24:00,16,         !- Field 6
    For: AllOtherDays,       !- Field 8
    Until: 06:00,16,         !- Field 9
    Until: 21:00,21,         !- Field 11
    Until: 24:00,16,         !- Field 13
    Through: 9/1,            !- Field 15
    For: WinterDesignDay,    !- Field 16
    Until: 24:00,21,         !- Field 17
    For: WeekEnds Holidays SummerDesignDay, !- Field 19
    Until: 24:00,16,         !- Field 20
    For: AllOtherDays,       !- Field 22
    Until: 07:00,16,         !- Field 23
    Until: 18:00,21,         !- Field 25
    Until: 24:00,16,         !- Field 27
    Through: 12/31,          !- Field 29
    For: WinterDesignDay,    !- Field 30
    Until: 24:00,21,         !- Field 31
    For: WeekEnds Holidays SummerDesignDay, !- Field 33
    Until: 24:00,16,         !- Field 34
    For: AllOtherDays,       !- Field 36
    Until: 06:00,16,         !- Field 37
    Until: 21:00,21,         !- Field 39
    Until: 24:00,16;         !- Field 41

  Schedule:Compact,
    H1_NOM,                  !- Name
    Temperature,             !- Schedule Type Limits Name
    Through: 12/31,          !- Field 1
    For: WinterDesignDay,    !- Field 2
    Until: 06:00,16,         !- Field 3
    Until: 21:00,21,         !- Field 5
    Until: 24:00,16,         !- Field 7
    For: AllOtherDays,       !- Field 9
    Until: 24:00,16;         !- Field 10

  EnergyManagementSystem:ProgramCallingManager,
    Volume_Initializer,      !- Name
    BeginNewEnvironment,     !- EnergyPlus Model Calling Point
    Initialize_Volumes;      !- Program Name 1

  EnergyManagementSystem:ProgramCallingManager,
    Setpoint_Controller,     !- Name
    BeginTimestepBeforePredictor,  !- EnergyPlus Model Calling Point
    Set_Setpoints;           !- Program Name 1

  EnergyManagementSystem:ProgramCallingManager,
    Demand_Reporter,         !- Name
    EndOfZoneTimestepAfterZoneReporting,  !- EnergyPlus Model Calling Point
    Report_Demand,           !- Program Name 1
    Report_Occupants,        !- Program Name 2
    Calculate_Temperatures;  !- Program Name 3

  EnergyManagementSystem:Program,
    Set_Setpoints,           !- Name
    Set C2 = C2_NOM + COOL_SETP_DELTA*5.0/9.0,  !- Program Line 1
    Set C1 = C1_NOM + COOL_SETP_DELTA*5.0/9.0,  !- Program Line 2
    Set H2 = H2_NOM + HEAT_SETP_DELTA*5.0/9.0,  !- <none>
    Set H1 = H1_NOM + HEAT_SETP_DELTA*5.0/9.0;  !- <none>

  EnergyManagementSystem:Program,
    Initialize_Volumes,      !- Name
    Set BATH_ZN_1_FLR_1_V = 760.00,  !- Program Line 1
    Set CAFETERIA_ZN_1_FLR_1_V = 1260.00,  !- Program Line 2
    Set COMPUTER_CLASS_ZN_1_FLR_1_V = 648.00,  !- <none>
    Set CORNER_CLASS_1_POD_1_ZN_1_FLR_1_V = 396.00,  !- <none>
    Set CORNER_CLASS_1_POD_2_ZN_1_FLR_1_V = 396.00,  !- <none>
    Set CORNER_CLASS_1_POD_3_ZN_1_FLR_1_V = 396.00,  !- <none>
    Set CORNER_CLASS_2_POD_1_ZN_1_FLR_1_V = 396.00,  !- <none>
    Set CORNER_CLASS_2_POD_2_ZN_1_FLR_1_V = 396.00,  !- <none>
    Set CORNER_CLASS_2_POD_3_ZN_1_FLR_1_V = 396.00,  !- <none>
    Set CORRIDOR_POD_1_ZN_1_FLR_1_V = 768.00,  !- <none>
    Set CORRIDOR_POD_2_ZN_1_FLR_1_V = 768.00,  !- <none>
    Set CORRIDOR_POD_3_ZN_1_FLR_1_V = 768.00,  !- <none>
    Set GYM_ZN_1_FLR_1_V = 1428.00,  !- <none>
    Set KITCHEN_ZN_1_FLR_1_V = 672.00,  !- <none>
    Set LIBRARY_MEDIA_CENTER_ZN_1_FLR_1_V = 1596.00,  !- <none>
    Set LOBBY_ZN_1_FLR_1_V = 684.00,  !- <none>
    Set MAIN_CORRIDOR_ZN_1_FLR_1_V = 2184.00,  !- <none>
    Set MECH_ZN_1_FLR_1_V = 1008.00,  !- <none>
    Set MULT_CLASS_1_POD_1_ZN_1_FLR_1_V = 1908.00,  !- <none>
    Set MULT_CLASS_1_POD_2_ZN_1_FLR_1_V = 1908.00,  !- <none>
    Set MULT_CLASS_1_POD_3_ZN_1_FLR_1_V = 1908.00,  !- <none>
    Set MULT_CLASS_2_POD_1_ZN_1_FLR_1_V = 1908.00,  !- <none>
    Set MULT_CLASS_2_POD_2_ZN_1_FLR_1_V = 1908.00,  !- <none>
    Set MULT_CLASS_2_POD_3_ZN_1_FLR_1_V = 1260.00,  !- <none>
    Set OFFICES_ZN_1_FLR_1_V = 1764.00;  !- <none>

! Average temperature over controlled zone air volumes
! Average cooling schedule and setpoint over controlled zone air volumes
! Average heating schedule and setpoint over controlled zone air volumes

  EnergyManagementSystem:Program,
    Calculate_Temperatures,  !- Name
    Set TOTAL_COOL_V = 0.0,  !- Program Line 1
    Set TOTAL_HEAT_V = 0.0,  !- Program Line 2
    Set C_SET = 0.0,         !- <none>
    Set H_SET = 0.0,         !- <none>
    Set C_CUR = 0.0,         !- <none>
    Set H_CUR = 0.0,         !- <none>
    Set Total_V = 27484.00,  !- <none>
    Set Controlled_V = 27484.00,  !- <none>
    IF (BATH_ZN_1_FLR_1_H > 0),  !- <none>
    Set H_SET = H_SET + H1 * BATH_ZN_1_FLR_1_V,  !- <none>
    Set H_CUR = H_CUR + BATH_ZN_1_FLR_1_T * BATH_ZN_1_FLR_1_V,  !- <none>
    Set TOTAL_HEAT_V = TOTAL_HEAT_V + BATH_ZN_1_FLR_1_V,  !- <none>
    ENDIF,                   !- <none>
    IF (BATH_ZN_1_FLR_1_C > 0),  !- <none>
    Set C_SET = C_SET + C1 * BATH_ZN_1_FLR_1_V,  !- <none>
    Set C_CUR = C_CUR + BATH_ZN_1_FLR_1_T * BATH_ZN_1_FLR_1_V,  !- <none>
    Set TOTAL_COOL_V = TOTAL_COOL_V + BATH_ZN_1_FLR_1_V,  !- <none>
    ENDIF,                   !- <none>
    IF (CAFETERIA_ZN_1_FLR_1_H > 0),  !- <none>
    Set H_SET = H_SET + H2 * CAFETERIA_ZN_1_FLR_1_V,  !- <none>
    Set H_CUR = H_CUR + CAFETERIA_ZN_1_FLR_1_T * CAFETERIA_ZN_1_FLR_1_V,  !- <none>
    Set TOTAL_HEAT_V = TOTAL_HEAT_V + CAFETERIA_ZN_1_FLR_1_V,  !- <none>
    ENDIF,                   !- <none>
    IF (CAFETERIA_ZN_1_FLR_1_C > 0),  !- <none>
    Set C_SET = C_SET + C2 * CAFETERIA_ZN_1_FLR_1_V,  !- <none>
    Set C_CUR = C_CUR + CAFETERIA_ZN_1_FLR_1_T * CAFETERIA_ZN_1_FLR_1_V,  !- <none>
    Set TOTAL_COOL_V = TOTAL_COOL_V + CAFETERIA_ZN_1_FLR_1_V,  !- <none>
    ENDIF,                   !- <none>
    IF (COMPUTER_CLASS_ZN_1_FLR_1_H > 0),  !- <none>
    Set H_SET = H_SET + H2 * COMPUTER_CLASS_ZN_1_FLR_1_V,  !- <none>
    Set H_CUR = H_CUR + COMPUTER_CLASS_ZN_1_FLR_1_T * COMPUTER_CLASS_ZN_1_FLR_1_V,  !- <none>
    Set TOTAL_HEAT_V = TOTAL_HEAT_V + COMPUTER_CLASS_ZN_1_FLR_1_V,  !- <none>
    ENDIF,                   !- <none>
    IF (COMPUTER_CLASS_ZN_1_FLR_1_C > 0),  !- <none>
    Set C_SET = C_SET + C2 * COMPUTER_CLASS_ZN_1_FLR_1_V,  !- <none>
    Set C_CUR = C_CUR + COMPUTER_CLASS_ZN_1_FLR_1_T * COMPUTER_CLASS_ZN_1_FLR_1_V,  !- <none>
    Set TOTAL_COOL_V = TOTAL_COOL_V + COMPUTER_CLASS_ZN_1_FLR_1_V,  !- <none>
    ENDIF,                   !- <none>
    IF (CORNER_CLASS_1_POD_1_ZN_1_FLR_1_H > 0),  !- <none>
    Set H_SET = H_SET + H2 * CORNER_CLASS_1_POD_1_ZN_1_FLR_1_V,  !- <none>
    Set H_CUR = H_CUR + CORNER_CLASS_1_POD_1_ZN_1_FLR_1_T * CORNER_CLASS_1_POD_1_ZN_1_FLR_1_V,  !- <none>
    Set TOTAL_HEAT_V = TOTAL_HEAT_V + CORNER_CLASS_1_POD_1_ZN_1_FLR_1_V,  !- <none>
    ENDIF,                   !- <none>
    IF (CORNER_CLASS_1_POD_1_ZN_1_FLR_1_C > 0),  !- <none>
    Set C_SET = C_SET + C2 * CORNER_CLASS_1_POD_1_ZN_1_FLR_1_V,  !- <none>
    Set C_CUR = C_CUR + CORNER_CLASS_1_POD_1_ZN_1_FLR_1_T * CORNER_CLASS_1_POD_1_ZN_1_FLR_1_V,  !- <none>
    Set TOTAL_COOL_V = TOTAL_COOL_V + CORNER_CLASS_1_POD_1_ZN_1_FLR_1_V,  !- <none>
    ENDIF,                   !- <none>
    IF (CORNER_CLASS_1_POD_2_ZN_1_FLR_1_H > 0),  !- <none>
    Set H_SET = H_SET + H2 * CORNER_CLASS_1_POD_2_ZN_1_FLR_1_V,  !- <none>
    Set H_CUR = H_CUR + CORNER_CLASS_1_POD_2_ZN_1_FLR_1_T * CORNER_CLASS_1_POD_2_ZN_1_FLR_1_V,  !- <none>
    Set TOTAL_HEAT_V = TOTAL_HEAT_V + CORNER_CLASS_1_POD_2_ZN_1_FLR_1_V,  !- <none>
    ENDIF,                   !- <none>
    IF (CORNER_CLASS_1_POD_2_ZN_1_FLR_1_C > 0),  !- <none>
    Set C_SET = C_SET + C2 * CORNER_CLASS_1_POD_2_ZN_1_FLR_1_V,  !- <none>
    Set C_CUR = C_CUR + CORNER_CLASS_1_POD_2_ZN_1_FLR_1_T * CORNER_CLASS_1_POD_2_ZN_1_FLR_1_V,  !- <none>
    Set TOTAL_COOL_V = TOTAL_COOL_V + CORNER_CLASS_1_POD_2_ZN_1_FLR_1_V,  !- <none>
    ENDIF,                   !- <none>
    IF (CORNER_CLASS_1_POD_3_ZN_1_FLR_1_H > 0),  !- <none>
    Set H_SET = H_SET + H2 * CORNER_CLASS_1_POD_3_ZN_1_FLR_1_V,  !- <none>
    Set H_CUR = H_CUR + CORNER_CLASS_1_POD_3_ZN_1_FLR_1_T * CORNER_CLASS_1_POD_3_ZN_1_FLR_1_V,  !- <none>
    Set TOTAL_HEAT_V = TOTAL_HEAT_V + CORNER_CLASS_1_POD_3_ZN_1_FLR_1_V,  !- <none>
    ENDIF,                   !- <none>
    IF (CORNER_CLASS_1_POD_3_ZN_1_FLR_1_C > 0),  !- <none>
    Set C_SET = C_SET + C2 * CORNER_CLASS_1_POD_3_ZN_1_FLR_1_V,  !- <none>
    Set C_CUR = C_CUR + CORNER_CLASS_1_POD_3_ZN_1_FLR_1_T * CORNER_CLASS_1_POD_3_ZN_1_FLR_1_V,  !- <none>
    Set TOTAL_COOL_V = TOTAL_COOL_V + CORNER_CLASS_1_POD_3_ZN_1_FLR_1_V,  !- <none>
    ENDIF,                   !- <none>
    IF (CORNER_CLASS_2_POD_1_ZN_1_FLR_1_H > 0),  !- <none>
    Set H_SET = H_SET + H2 * CORNER_CLASS_2_POD_1_ZN_1_FLR_1_V,  !- <none>
    Set H_CUR = H_CUR + CORNER_CLASS_2_POD_1_ZN_1_FLR_1_T * CORNER_CLASS_2_POD_1_ZN_1_FLR_1_V,  !- <none>
    Set TOTAL_HEAT_V = TOTAL_HEAT_V + CORNER_CLASS_2_POD_1_ZN_1_FLR_1_V,  !- <none>
    ENDIF,                   !- <none>
    IF (CORNER_CLASS_2_POD_1_ZN_1_FLR_1_C > 0),  !- <none>
    Set C_SET = C_SET + C2 * CORNER_CLASS_2_POD_1_ZN_1_FLR_1_V,  !- <none>
    Set C_CUR = C_CUR + CORNER_CLASS_2_POD_1_ZN_1_FLR_1_T * CORNER_CLASS_2_POD_1_ZN_1_FLR_1_V,  !- <none>
    Set TOTAL_COOL_V = TOTAL_COOL_V + CORNER_CLASS_2_POD_1_ZN_1_FLR_1_V,  !- <none>
    ENDIF,                   !- <none>
    IF (CORNER_CLASS_2_POD_2_ZN_1_FLR_1_H > 0),  !- <none>
    Set H_SET = H_SET + H2 * CORNER_CLASS_2_POD_2_ZN_1_FLR_1_V,  !- <none>
    Set H_CUR = H_CUR + CORNER_CLASS_2_POD_2_ZN_1_FLR_1_T * CORNER_CLASS_2_POD_2_ZN_1_FLR_1_V,  !- <none>
    Set TOTAL_HEAT_V = TOTAL_HEAT_V + CORNER_CLASS_2_POD_2_ZN_1_FLR_1_V,  !- <none>
    ENDIF,                   !- <none>
    IF (CORNER_CLASS_2_POD_2_ZN_1_FLR_1_C > 0),  !- <none>
    Set C_SET = C_SET + C2 * CORNER_CLASS_2_POD_2_ZN_1_FLR_1_V,  !- <none>
    Set C_CUR = C_CUR + CORNER_CLASS_2_POD_2_ZN_1_FLR_1_T * CORNER_CLASS_2_POD_2_ZN_1_FLR_1_V,  !- <none>
    Set TOTAL_COOL_V = TOTAL_COOL_V + CORNER_CLASS_2_POD_2_ZN_1_FLR_1_V,  !- <none>
    ENDIF,                   !- <none>
    IF (CORNER_CLASS_2_POD_3_ZN_1_FLR_1_H > 0),  !- <none>
    Set H_SET = H_SET + H2 * CORNER_CLASS_2_POD_3_ZN_1_FLR_1_V,  !- <none>
    Set H_CUR = H_CUR + CORNER_CLASS_2_POD_3_ZN_1_FLR_1_T * CORNER_CLASS_2_POD_3_ZN_1_FLR_1_V,  !- <none>
    Set TOTAL_HEAT_V = TOTAL_HEAT_V + CORNER_CLASS_2_POD_3_ZN_1_FLR_1_V,  !- <none>
    ENDIF,                   !- <none>
    IF (CORNER_CLASS_2_POD_3_ZN_1_FLR_1_C > 0),  !- <none>
    Set C_SET = C_SET + C2 * CORNER_CLASS_2_POD_3_ZN_1_FLR_1_V,  !- <none>
    Set C_CUR = C_CUR + CORNER_CLASS_2_POD_3_ZN_1_FLR_1_T * CORNER_CLASS_2_POD_3_ZN_1_FLR_1_V,  !- <none>
    Set TOTAL_COOL_V = TOTAL_COOL_V + CORNER_CLASS_2_POD_3_ZN_1_FLR_1_V,  !- <none>
    ENDIF,                   !- <none>
    IF (CORRIDOR_POD_1_ZN_1_FLR_1_H > 0),  !- <none>
    Set H_SET = H_SET + H1 * CORRIDOR_POD_1_ZN_1_FLR_1_V,  !- <none>
    Set H_CUR = H_CUR + CORRIDOR_POD_1_ZN_1_FLR_1_T * CORRIDOR_POD_1_ZN_1_FLR_1_V,  !- <none>
    Set TOTAL_HEAT_V = TOTAL_HEAT_V + CORRIDOR_POD_1_ZN_1_FLR_1_V,  !- <none>
    ENDIF,                   !- <none>
    IF (CORRIDOR_POD_1_ZN_1_FLR_1_C > 0),  !- <none>
    Set C_SET = C_SET + C1 * CORRIDOR_POD_1_ZN_1_FLR_1_V,  !- <none>
    Set C_CUR = C_CUR + CORRIDOR_POD_1_ZN_1_FLR_1_T * CORRIDOR_POD_1_ZN_1_FLR_1_V,  !- <none>
    Set TOTAL_COOL_V = TOTAL_COOL_V + CORRIDOR_POD_1_ZN_1_FLR_1_V,  !- <none>
    ENDIF,                   !- <none>
    IF (CORRIDOR_POD_2_ZN_1_FLR_1_H > 0),  !- <none>
    Set H_SET = H_SET + H1 * CORRIDOR_POD_2_ZN_1_FLR_1_V,  !- <none>
    Set H_CUR = H_CUR + CORRIDOR_POD_2_ZN_1_FLR_1_T * CORRIDOR_POD_2_ZN_1_FLR_1_V,  !- <none>
    Set TOTAL_HEAT_V = TOTAL_HEAT_V + CORRIDOR_POD_2_ZN_1_FLR_1_V,  !- <none>
    ENDIF,                   !- <none>
    IF (CORRIDOR_POD_2_ZN_1_FLR_1_C > 0),  !- <none>
    Set C_SET = C_SET + C1 * CORRIDOR_POD_2_ZN_1_FLR_1_V,  !- <none>
    Set C_CUR = C_CUR + CORRIDOR_POD_2_ZN_1_FLR_1_T * CORRIDOR_POD_2_ZN_1_FLR_1_V,  !- <none>
    Set TOTAL_COOL_V = TOTAL_COOL_V + CORRIDOR_POD_2_ZN_1_FLR_1_V,  !- <none>
    ENDIF,                   !- <none>
    IF (CORRIDOR_POD_3_ZN_1_FLR_1_H > 0),  !- <none>
    Set H_SET = H_SET + H1 * CORRIDOR_POD_3_ZN_1_FLR_1_V,  !- <none>
    Set H_CUR = H_CUR + CORRIDOR_POD_3_ZN_1_FLR_1_T * CORRIDOR_POD_3_ZN_1_FLR_1_V,  !- <none>
    Set TOTAL_HEAT_V = TOTAL_HEAT_V + CORRIDOR_POD_3_ZN_1_FLR_1_V,  !- <none>
    ENDIF,                   !- <none>
    IF (CORRIDOR_POD_3_ZN_1_FLR_1_C > 0),  !- <none>
    Set C_SET = C_SET + C1 * CORRIDOR_POD_3_ZN_1_FLR_1_V,  !- <none>
    Set C_CUR = C_CUR + CORRIDOR_POD_3_ZN_1_FLR_1_T * CORRIDOR_POD_3_ZN_1_FLR_1_V,  !- <none>
    Set TOTAL_COOL_V = TOTAL_COOL_V + CORRIDOR_POD_3_ZN_1_FLR_1_V,  !- <none>
    ENDIF,                   !- <none>
    IF (GYM_ZN_1_FLR_1_H > 0),  !- <none>
    Set H_SET = H_SET + H2 * GYM_ZN_1_FLR_1_V,  !- <none>
    Set H_CUR = H_CUR + GYM_ZN_1_FLR_1_T * GYM_ZN_1_FLR_1_V,  !- <none>
    Set TOTAL_HEAT_V = TOTAL_HEAT_V + GYM_ZN_1_FLR_1_V,  !- <none>
    ENDIF,                   !- <none>
    IF (GYM_ZN_1_FLR_1_C > 0),  !- <none>
    Set C_SET = C_SET + C2 * GYM_ZN_1_FLR_1_V,  !- <none>
    Set C_CUR = C_CUR + GYM_ZN_1_FLR_1_T * GYM_ZN_1_FLR_1_V,  !- <none>
    Set TOTAL_COOL_V = TOTAL_COOL_V + GYM_ZN_1_FLR_1_V,  !- <none>
    ENDIF,                   !- <none>
    IF (KITCHEN_ZN_1_FLR_1_H > 0),  !- <none>
    Set H_SET = H_SET + H1 * KITCHEN_ZN_1_FLR_1_V,  !- <none>
    Set H_CUR = H_CUR + KITCHEN_ZN_1_FLR_1_T * KITCHEN_ZN_1_FLR_1_V,  !- <none>
    Set TOTAL_HEAT_V = TOTAL_HEAT_V + KITCHEN_ZN_1_FLR_1_V,  !- <none>
    ENDIF,                   !- <none>
    IF (KITCHEN_ZN_1_FLR_1_C > 0),  !- <none>
    Set C_SET = C_SET + C1 * KITCHEN_ZN_1_FLR_1_V,  !- <none>
    Set C_CUR = C_CUR + KITCHEN_ZN_1_FLR_1_T * KITCHEN_ZN_1_FLR_1_V,  !- <none>
    Set TOTAL_COOL_V = TOTAL_COOL_V + KITCHEN_ZN_1_FLR_1_V,  !- <none>
    ENDIF,                   !- <none>
    IF (LIBRARY_MEDIA_CENTER_ZN_1_FLR_1_H > 0),  !- <none>
    Set H_SET = H_SET + H2 * LIBRARY_MEDIA_CENTER_ZN_1_FLR_1_V,  !- <none>
    Set H_CUR = H_CUR + LIBRARY_MEDIA_CENTER_ZN_1_FLR_1_T * LIBRARY_MEDIA_CENTER_ZN_1_FLR_1_V,  !- <none>
    Set TOTAL_HEAT_V = TOTAL_HEAT_V + LIBRARY_MEDIA_CENTER_ZN_1_FLR_1_V,  !- <none>
    ENDIF,                   !- <none>
    IF (LIBRARY_MEDIA_CENTER_ZN_1_FLR_1_C > 0),  !- <none>
    Set C_SET = C_SET + C2 * LIBRARY_MEDIA_CENTER_ZN_1_FLR_1_V,  !- <none>
    Set C_CUR = C_CUR + LIBRARY_MEDIA_CENTER_ZN_1_FLR_1_T * LIBRARY_MEDIA_CENTER_ZN_1_FLR_1_V,  !- <none>
    Set TOTAL_COOL_V = TOTAL_COOL_V + LIBRARY_MEDIA_CENTER_ZN_1_FLR_1_V,  !- <none>
    ENDIF,                   !- <none>
    IF (LOBBY_ZN_1_FLR_1_H > 0),  !- <none>
    Set H_SET = H_SET + H2 * LOBBY_ZN_1_FLR_1_V,  !- <none>
    Set H_CUR = H_CUR + LOBBY_ZN_1_FLR_1_T * LOBBY_ZN_1_FLR_1_V,  !- <none>
    Set TOTAL_HEAT_V = TOTAL_HEAT_V + LOBBY_ZN_1_FLR_1_V,  !- <none>
    ENDIF,                   !- <none>
    IF (LOBBY_ZN_1_FLR_1_C > 0),  !- <none>
    Set C_SET = C_SET + C2 * LOBBY_ZN_1_FLR_1_V,  !- <none>
    Set C_CUR = C_CUR + LOBBY_ZN_1_FLR_1_T * LOBBY_ZN_1_FLR_1_V,  !- <none>
    Set TOTAL_COOL_V = TOTAL_COOL_V + LOBBY_ZN_1_FLR_1_V,  !- <none>
    ENDIF,                   !- <none>
    IF (MAIN_CORRIDOR_ZN_1_FLR_1_H > 0),  !- <none>
    Set H_SET = H_SET + H1 * MAIN_CORRIDOR_ZN_1_FLR_1_V,  !- <none>
    Set H_CUR = H_CUR + MAIN_CORRIDOR_ZN_1_FLR_1_T * MAIN_CORRIDOR_ZN_1_FLR_1_V,  !- <none>
    Set TOTAL_HEAT_V = TOTAL_HEAT_V + MAIN_CORRIDOR_ZN_1_FLR_1_V,  !- <none>
    ENDIF,                   !- <none>
    IF (MAIN_CORRIDOR_ZN_1_FLR_1_C > 0),  !- <none>
    Set C_SET = C_SET + C1 * MAIN_CORRIDOR_ZN_1_FLR_1_V,  !- <none>
    Set C_CUR = C_CUR + MAIN_CORRIDOR_ZN_1_FLR_1_T * MAIN_CORRIDOR_ZN_1_FLR_1_V,  !- <none>
    Set TOTAL_COOL_V = TOTAL_COOL_V + MAIN_CORRIDOR_ZN_1_FLR_1_V,  !- <none>
    ENDIF,                   !- <none>
    IF (MECH_ZN_1_FLR_1_H > 0),  !- <none>
    Set H_SET = H_SET + H1 * MECH_ZN_1_FLR_1_V,  !- <none>
    Set H_CUR = H_CUR + MECH_ZN_1_FLR_1_T * MECH_ZN_1_FLR_1_V,  !- <none>
    Set TOTAL_HEAT_V = TOTAL_HEAT_V + MECH_ZN_1_FLR_1_V,  !- <none>
    ENDIF,                   !- <none>
    IF (MECH_ZN_1_FLR_1_C > 0),  !- <none>
    Set C_SET = C_SET + C1 * MECH_ZN_1_FLR_1_V,  !- <none>
    Set C_CUR = C_CUR + MECH_ZN_1_FLR_1_T * MECH_ZN_1_FLR_1_V,  !- <none>
    Set TOTAL_COOL_V = TOTAL_COOL_V + MECH_ZN_1_FLR_1_V,  !- <none>
    ENDIF,                   !- <none>
    IF (MULT_CLASS_1_POD_1_ZN_1_FLR_1_H > 0),  !- <none>
    Set H_SET = H_SET + H2 * MULT_CLASS_1_POD_1_ZN_1_FLR_1_V,  !- <none>
    Set H_CUR = H_CUR + MULT_CLASS_1_POD_1_ZN_1_FLR_1_T * MULT_CLASS_1_POD_1_ZN_1_FLR_1_V,  !- <none>
    Set TOTAL_HEAT_V = TOTAL_HEAT_V + MULT_CLASS_1_POD_1_ZN_1_FLR_1_V,  !- <none>
    ENDIF,                   !- <none>
    IF (MULT_CLASS_1_POD_1_ZN_1_FLR_1_C > 0),  !- <none>
    Set C_SET = C_SET + C2 * MULT_CLASS_1_POD_1_ZN_1_FLR_1_V,  !- <none>
    Set C_CUR = C_CUR + MULT_CLASS_1_POD_1_ZN_1_FLR_1_T * MULT_CLASS_1_POD_1_ZN_1_FLR_1_V,  !- <none>
    Set TOTAL_COOL_V = TOTAL_COOL_V + MULT_CLASS_1_POD_1_ZN_1_FLR_1_V,  !- <none>
    ENDIF,                   !- <none>
    IF (MULT_CLASS_1_POD_2_ZN_1_FLR_1_H > 0),  !- <none>
    Set H_SET = H_SET + H2 * MULT_CLASS_1_POD_2_ZN_1_FLR_1_V,  !- <none>
    Set H_CUR = H_CUR + MULT_CLASS_1_POD_2_ZN_1_FLR_1_T * MULT_CLASS_1_POD_2_ZN_1_FLR_1_V,  !- <none>
    Set TOTAL_HEAT_V = TOTAL_HEAT_V + MULT_CLASS_1_POD_2_ZN_1_FLR_1_V,  !- <none>
    ENDIF,                   !- <none>
    IF (MULT_CLASS_1_POD_2_ZN_1_FLR_1_C > 0),  !- <none>
    Set C_SET = C_SET + C2 * MULT_CLASS_1_POD_2_ZN_1_FLR_1_V,  !- <none>
    Set C_CUR = C_CUR + MULT_CLASS_1_POD_2_ZN_1_FLR_1_T * MULT_CLASS_1_POD_2_ZN_1_FLR_1_V,  !- <none>
    Set TOTAL_COOL_V = TOTAL_COOL_V + MULT_CLASS_1_POD_2_ZN_1_FLR_1_V,  !- <none>
    ENDIF,                   !- <none>
    IF (MULT_CLASS_1_POD_3_ZN_1_FLR_1_H > 0),  !- <none>
    Set H_SET = H_SET + H2 * MULT_CLASS_1_POD_3_ZN_1_FLR_1_V,  !- <none>
    Set H_CUR = H_CUR + MULT_CLASS_1_POD_3_ZN_1_FLR_1_T * MULT_CLASS_1_POD_3_ZN_1_FLR_1_V,  !- <none>
    Set TOTAL_HEAT_V = TOTAL_HEAT_V + MULT_CLASS_1_POD_3_ZN_1_FLR_1_V,  !- <none>
    ENDIF,                   !- <none>
    IF (MULT_CLASS_1_POD_3_ZN_1_FLR_1_C > 0),  !- <none>
    Set C_SET = C_SET + C2 * MULT_CLASS_1_POD_3_ZN_1_FLR_1_V,  !- <none>
    Set C_CUR = C_CUR + MULT_CLASS_1_POD_3_ZN_1_FLR_1_T * MULT_CLASS_1_POD_3_ZN_1_FLR_1_V,  !- <none>
    Set TOTAL_COOL_V = TOTAL_COOL_V + MULT_CLASS_1_POD_3_ZN_1_FLR_1_V,  !- <none>
    ENDIF,                   !- <none>
    IF (MULT_CLASS_2_POD_1_ZN_1_FLR_1_H > 0),  !- <none>
    Set H_SET = H_SET + H2 * MULT_CLASS_2_POD_1_ZN_1_FLR_1_V,  !- <none>
    Set H_CUR = H_CUR + MULT_CLASS_2_POD_1_ZN_1_FLR_1_T * MULT_CLASS_2_POD_1_ZN_1_FLR_1_V,  !- <none>
    Set TOTAL_HEAT_V = TOTAL_HEAT_V + MULT_CLASS_2_POD_1_ZN_1_FLR_1_V,  !- <none>
    ENDIF,                   !- <none>
    IF (MULT_CLASS_2_POD_1_ZN_1_FLR_1_C > 0),  !- <none>
    Set C_SET = C_SET + C2 * MULT_CLASS_2_POD_1_ZN_1_FLR_1_V,  !- <none>
    Set C_CUR = C_CUR + MULT_CLASS_2_POD_1_ZN_1_FLR_1_T * MULT_CLASS_2_POD_1_ZN_1_FLR_1_V,  !- <none>
    Set TOTAL_COOL_V = TOTAL_COOL_V + MULT_CLASS_2_POD_1_ZN_1_FLR_1_V,  !- <none>
    ENDIF,                   !- <none>
    IF (MULT_CLASS_2_POD_2_ZN_1_FLR_1_H > 0),  !- <none>
    Set H_SET = H_SET + H2 * MULT_CLASS_2_POD_2_ZN_1_FLR_1_V,  !- <none>
    Set H_CUR = H_CUR + MULT_CLASS_2_POD_2_ZN_1_FLR_1_T * MULT_CLASS_2_POD_2_ZN_1_FLR_1_V,  !- <none>
    Set TOTAL_HEAT_V = TOTAL_HEAT_V + MULT_CLASS_2_POD_2_ZN_1_FLR_1_V,  !- <none>
    ENDIF,                   !- <none>
    IF (MULT_CLASS_2_POD_2_ZN_1_FLR_1_C > 0),  !- <none>
    Set C_SET = C_SET + C2 * MULT_CLASS_2_POD_2_ZN_1_FLR_1_V,  !- <none>
    Set C_CUR = C_CUR + MULT_CLASS_2_POD_2_ZN_1_FLR_1_T * MULT_CLASS_2_POD_2_ZN_1_FLR_1_V,  !- <none>
    Set TOTAL_COOL_V = TOTAL_COOL_V + MULT_CLASS_2_POD_2_ZN_1_FLR_1_V,  !- <none>
    ENDIF,                   !- <none>
    IF (MULT_CLASS_2_POD_3_ZN_1_FLR_1_H > 0),  !- <none>
    Set H_SET = H_SET + H2 * MULT_CLASS_2_POD_3_ZN_1_FLR_1_V,  !- <none>
    Set H_CUR = H_CUR + MULT_CLASS_2_POD_3_ZN_1_FLR_1_T * MULT_CLASS_2_POD_3_ZN_1_FLR_1_V,  !- <none>
    Set TOTAL_HEAT_V = TOTAL_HEAT_V + MULT_CLASS_2_POD_3_ZN_1_FLR_1_V,  !- <none>
    ENDIF,                   !- <none>
    IF (MULT_CLASS_2_POD_3_ZN_1_FLR_1_C > 0),  !- <none>
    Set C_SET = C_SET + C2 * MULT_CLASS_2_POD_3_ZN_1_FLR_1_V,  !- <none>
    Set C_CUR = C_CUR + MULT_CLASS_2_POD_3_ZN_1_FLR_1_T * MULT_CLASS_2_POD_3_ZN_1_FLR_1_V,  !- <none>
    Set TOTAL_COOL_V = TOTAL_COOL_V + MULT_CLASS_2_POD_3_ZN_1_FLR_1_V,  !- <none>
    ENDIF,                   !- <none>
    IF (OFFICES_ZN_1_FLR_1_H > 0),  !- <none>
    Set H_SET = H_SET + H2 * OFFICES_ZN_1_FLR_1_V,  !- <none>
    Set H_CUR = H_CUR + OFFICES_ZN_1_FLR_1_T * OFFICES_ZN_1_FLR_1_V,  !- <none>
    Set TOTAL_HEAT_V = TOTAL_HEAT_V + OFFICES_ZN_1_FLR_1_V,  !- <none>
    ENDIF,                   !- <none>
    IF (OFFICES_ZN_1_FLR_1_C > 0),  !- <none>
    Set C_SET = C_SET + C2 * OFFICES_ZN_1_FLR_1_V,  !- <none>
    Set C_CUR = C_CUR + OFFICES_ZN_1_FLR_1_T * OFFICES_ZN_1_FLR_1_V,  !- <none>
    Set TOTAL_COOL_V = TOTAL_COOL_V + OFFICES_ZN_1_FLR_1_V,  !- <none>
    ENDIF,                   !- <none>
    Set T_CUR = 0,           !- <none>
    Set T_CUR = T_CUR + BATH_ZN_1_FLR_1_T * BATH_ZN_1_FLR_1_V,  !- <none>
    Set T_CUR = T_CUR + CAFETERIA_ZN_1_FLR_1_T * CAFETERIA_ZN_1_FLR_1_V,  !- <none>
    Set T_CUR = T_CUR + COMPUTER_CLASS_ZN_1_FLR_1_T * COMPUTER_CLASS_ZN_1_FLR_1_V,  !- <none>
    Set T_CUR = T_CUR + CORNER_CLASS_1_POD_1_ZN_1_FLR_1_T * CORNER_CLASS_1_POD_1_ZN_1_FLR_1_V,  !- <none>
    Set T_CUR = T_CUR + CORNER_CLASS_1_POD_2_ZN_1_FLR_1_T * CORNER_CLASS_1_POD_2_ZN_1_FLR_1_V,  !- <none>
    Set T_CUR = T_CUR + CORNER_CLASS_1_POD_3_ZN_1_FLR_1_T * CORNER_CLASS_1_POD_3_ZN_1_FLR_1_V,  !- <none>
    Set T_CUR = T_CUR + CORNER_CLASS_2_POD_1_ZN_1_FLR_1_T * CORNER_CLASS_2_POD_1_ZN_1_FLR_1_V,  !- <none>
    Set T_CUR = T_CUR + CORNER_CLASS_2_POD_2_ZN_1_FLR_1_T * CORNER_CLASS_2_POD_2_ZN_1_FLR_1_V,  !- <none>
    Set T_CUR = T_CUR + CORNER_CLASS_2_POD_3_ZN_1_FLR_1_T * CORNER_CLASS_2_POD_3_ZN_1_FLR_1_V,  !- <none>
    Set T_CUR = T_CUR + CORRIDOR_POD_1_ZN_1_FLR_1_T * CORRIDOR_POD_1_ZN_1_FLR_1_V,  !- <none>
    Set T_CUR = T_CUR + CORRIDOR_POD_2_ZN_1_FLR_1_T * CORRIDOR_POD_2_ZN_1_FLR_1_V,  !- <none>
    Set T_CUR = T_CUR + CORRIDOR_POD_3_ZN_1_FLR_1_T * CORRIDOR_POD_3_ZN_1_FLR_1_V,  !- <none>
    Set T_CUR = T_CUR + GYM_ZN_1_FLR_1_T * GYM_ZN_1_FLR_1_V,  !- <none>
    Set T_CUR = T_CUR + KITCHEN_ZN_1_FLR_1_T * KITCHEN_ZN_1_FLR_1_V,  !- <none>
    Set T_CUR = T_CUR + LIBRARY_MEDIA_CENTER_ZN_1_FLR_1_T * LIBRARY_MEDIA_CENTER_ZN_1_FLR_1_V,  !- <none>
    Set T_CUR = T_CUR + LOBBY_ZN_1_FLR_1_T * LOBBY_ZN_1_FLR_1_V,  !- <none>
    Set T_CUR = T_CUR + MAIN_CORRIDOR_ZN_1_FLR_1_T * MAIN_CORRIDOR_ZN_1_FLR_1_V,  !- <none>
    Set T_CUR = T_CUR + MECH_ZN_1_FLR_1_T * MECH_ZN_1_FLR_1_V,  !- <none>
    Set T_CUR = T_CUR + MULT_CLASS_1_POD_1_ZN_1_FLR_1_T * MULT_CLASS_1_POD_1_ZN_1_FLR_1_V,  !- <none>
    Set T_CUR = T_CUR + MULT_CLASS_1_POD_2_ZN_1_FLR_1_T * MULT_CLASS_1_POD_2_ZN_1_FLR_1_V,  !- <none>
    Set T_CUR = T_CUR + MULT_CLASS_1_POD_3_ZN_1_FLR_1_T * MULT_CLASS_1_POD_3_ZN_1_FLR_1_V,  !- <none>
    Set T_CUR = T_CUR + MULT_CLASS_2_POD_1_ZN_1_FLR_1_T * MULT_CLASS_2_POD_1_ZN_1_FLR_1_V,  !- <none>
    Set T_CUR = T_CUR + MULT_CLASS_2_POD_2_ZN_1_FLR_1_T * MULT_CLASS_2_POD_2_ZN_1_FLR_1_V,  !- <none>
    Set T_CUR = T_CUR + MULT_CLASS_2_POD_3_ZN_1_FLR_1_T * MULT_CLASS_2_POD_3_ZN_1_FLR_1_V,  !- <none>
    Set T_CUR = T_CUR + OFFICES_ZN_1_FLR_1_T * OFFICES_ZN_1_FLR_1_V,  !- <none>
    Set T_CUR = T_CUR/Controlled_V*9.0/5.0+32.0,  !- <none>
    Set Schedule_Cooling_Temperature = 0.0,  !- <none>
    Set T_Cooling = 0,       !- <none>
    Set T_Cooling = T_Cooling + C1 * BATH_ZN_1_FLR_1_V,  !- <none>
    Set Schedule_Cooling_Temperature = Schedule_Cooling_Temperature + C1_NOM * BATH_ZN_1_FLR_1_V,  !- <none>
    Set T_Cooling = T_Cooling + C2 * CAFETERIA_ZN_1_FLR_1_V,  !- <none>
    Set Schedule_Cooling_Temperature = Schedule_Cooling_Temperature + C2_NOM * CAFETERIA_ZN_1_FLR_1_V,  !- <none>
    Set T_Cooling = T_Cooling + C2 * COMPUTER_CLASS_ZN_1_FLR_1_V,  !- <none>
    Set Schedule_Cooling_Temperature = Schedule_Cooling_Temperature + C2_NOM * COMPUTER_CLASS_ZN_1_FLR_1,  !- <none>
    Set T_Cooling = T_Cooling + C2 * CORNER_CLASS_1_POD_1_ZN_1_FLR_1_V,  !- <none>
    Set Schedule_Cooling_Temperature = Schedule_Cooling_Temperature + C2_NOM * CORNER_CLASS_1_POD_1_ZN_1,  !- <none>
    Set T_Cooling = T_Cooling + C2 * CORNER_CLASS_1_POD_2_ZN_1_FLR_1_V,  !- <none>
    Set Schedule_Cooling_Temperature = Schedule_Cooling_Temperature + C2_NOM * CORNER_CLASS_1_POD_2_ZN_1,  !- <none>
    Set T_Cooling = T_Cooling + C2 * CORNER_CLASS_1_POD_3_ZN_1_FLR_1_V,  !- <none>
    Set Schedule_Cooling_Temperature = Schedule_Cooling_Temperature + C2_NOM * CORNER_CLASS_1_POD_3_ZN_1,  !- <none>
    Set T_Cooling = T_Cooling + C2 * CORNER_CLASS_2_POD_1_ZN_1_FLR_1_V,  !- <none>
    Set Schedule_Cooling_Temperature = Schedule_Cooling_Temperature + C2_NOM * CORNER_CLASS_2_POD_1_ZN_1,  !- <none>
    Set T_Cooling = T_Cooling + C2 * CORNER_CLASS_2_POD_2_ZN_1_FLR_1_V,  !- <none>
    Set Schedule_Cooling_Temperature = Schedule_Cooling_Temperature + C2_NOM * CORNER_CLASS_2_POD_2_ZN_1,  !- <none>
    Set T_Cooling = T_Cooling + C2 * CORNER_CLASS_2_POD_3_ZN_1_FLR_1_V,  !- <none>
    Set Schedule_Cooling_Temperature = Schedule_Cooling_Temperature + C2_NOM * CORNER_CLASS_2_POD_3_ZN_1,  !- <none>
    Set T_Cooling = T_Cooling + C1 * CORRIDOR_POD_1_ZN_1_FLR_1_V,  !- <none>
    Set Schedule_Cooling_Temperature = Schedule_Cooling_Temperature + C1_NOM * CORRIDOR_POD_1_ZN_1_FLR_1,  !- <none>
    Set T_Cooling = T_Cooling + C1 * CORRIDOR_POD_2_ZN_1_FLR_1_V,  !- <none>
    Set Schedule_Cooling_Temperature = Schedule_Cooling_Temperature + C1_NOM * CORRIDOR_POD_2_ZN_1_FLR_1,  !- <none>
    Set T_Cooling = T_Cooling + C1 * CORRIDOR_POD_3_ZN_1_FLR_1_V,  !- <none>
    Set Schedule_Cooling_Temperature = Schedule_Cooling_Temperature + C1_NOM * CORRIDOR_POD_3_ZN_1_FLR_1,  !- <none>
    Set T_Cooling = T_Cooling + C2 * GYM_ZN_1_FLR_1_V,  !- <none>
    Set Schedule_Cooling_Temperature = Schedule_Cooling_Temperature + C2_NOM * GYM_ZN_1_FLR_1_V,  !- <none>
    Set T_Cooling = T_Cooling + C1 * KITCHEN_ZN_1_FLR_1_V,  !- <none>
    Set Schedule_Cooling_Temperature = Schedule_Cooling_Temperature + C1_NOM * KITCHEN_ZN_1_FLR_1_V,  !- <none>
    Set T_Cooling = T_Cooling + C2 * LIBRARY_MEDIA_CENTER_ZN_1_FLR_1_V,  !- <none>
    Set Schedule_Cooling_Temperature = Schedule_Cooling_Temperature + C2_NOM * LIBRARY_MEDIA_CENTER_ZN_1,  !- <none>
    Set T_Cooling = T_Cooling + C2 * LOBBY_ZN_1_FLR_1_V,  !- <none>
    Set Schedule_Cooling_Temperature = Schedule_Cooling_Temperature + C2_NOM * LOBBY_ZN_1_FLR_1_V,  !- <none>
    Set T_Cooling = T_Cooling + C1 * MAIN_CORRIDOR_ZN_1_FLR_1_V,  !- <none>
    Set Schedule_Cooling_Temperature = Schedule_Cooling_Temperature + C1_NOM * MAIN_CORRIDOR_ZN_1_FLR_1_,  !- <none>
    Set T_Cooling = T_Cooling + C1 * MECH_ZN_1_FLR_1_V,  !- <none>
    Set Schedule_Cooling_Temperature = Schedule_Cooling_Temperature + C1_NOM * MECH_ZN_1_FLR_1_V,  !- <none>
    Set T_Cooling = T_Cooling + C2 * MULT_CLASS_1_POD_1_ZN_1_FLR_1_V,  !- <none>
    Set Schedule_Cooling_Temperature = Schedule_Cooling_Temperature + C2_NOM * MULT_CLASS_1_POD_1_ZN_1_F,  !- <none>
    Set T_Cooling = T_Cooling + C2 * MULT_CLASS_1_POD_2_ZN_1_FLR_1_V,  !- <none>
    Set Schedule_Cooling_Temperature = Schedule_Cooling_Temperature + C2_NOM * MULT_CLASS_1_POD_2_ZN_1_F,  !- <none>
    Set T_Cooling = T_Cooling + C2 * MULT_CLASS_1_POD_3_ZN_1_FLR_1_V,  !- <none>
    Set Schedule_Cooling_Temperature = Schedule_Cooling_Temperature + C2_NOM * MULT_CLASS_1_POD_3_ZN_1_F,  !- <none>
    Set T_Cooling = T_Cooling + C2 * MULT_CLASS_2_POD_1_ZN_1_FLR_1_V,  !- <none>